[TITLE]
Hanoi example by Fujiwara and Khang, Water Resources Research, 1990 

[JUNCTIONS]
 2                                     0.0000
 3                                     0.0000
 4                                     0.0000
 5                                     0.0000
 6                                     0.0000
 7                                     0.0000
 8                                     0.0000
 9                                     0.0000
 10                                    0.0000
 11                                    0.0000
 12                                    0.0000
 13                                    0.0000
 14                                    0.0000
 15                                    0.0000
 16                                    0.0000
 17                                    0.0000
 18                                    0.0000
 19                                    0.0000
 20                                    0.0000
 21                                    0.0000
 22                                    0.0000
 23                                    0.0000
 24                                    0.0000
 25                                    0.0000
 26                                    0.0000
 27                                    0.0000
 28                                    0.0000
 29                                    0.0000
 30                                    0.0000
 31                                    0.0000
 32                                    0.0000

[RESERVOIRS]
 1                                   100.0000 

[TANKS]

[PIPES]
 1                               1                               2                                   100.0000    1016.0000     130.0000       0.0000 
 2                               2                               3                                  1350.0000    1524.0000     130.0000       0.0000 
 3                               3                               4                                   900.0000    1016.0000     130.0000       0.0000 
 4                               4                               5                                  1150.0000    1016.0000     130.0000       0.0000 
 5                               5                               6                                  1450.0000    1016.0000     130.0000       0.0000 
 6                               6                               7                                   450.0000     762.0000     130.0000       0.0000 
 7                               7                               8                                   850.0000     762.0000     130.0000       0.0000 
 8                               8                               9                                   850.0000     762.0000     130.0000       0.0000 
 9                               9                               10                                  800.0000     762.0000     130.0000       0.0000 
 10                              10                              11                                  950.0000     508.0000     130.0000       0.0000 
 11                              11                              12                                 1200.0000     508.0000     130.0000       0.0000 
 12                              12                              13                                 3500.0000     508.0000     130.0000       0.0000 
 13                              10                              14                                  800.0000    1016.0000     130.0000       0.0000 
 14                              14                              15                                  500.0000     762.0000     130.0000       0.0000 
 15                              15                              16                                  550.0000     762.0000     130.0000       0.0000 
 16                              17                              16                                 2730.0000    1219.2000     130.0000       0.0000 
 17                              18                              17                                 1750.0000    1219.2000     130.0000       0.0000 
 18                              19                              18                                  800.0000    1016.0000     130.0000       0.0000 
 19                              3                               19                                  400.0000    1016.0000     130.0000       0.0000 
 20                              3                               20                                 2200.0000    1219.2000     130.0000       0.0000 
 21                              20                              21                                 1500.0000     508.0000     130.0000       0.0000 
 22                              21                              22                                  500.0000     304.8000     130.0000       0.0000 
 23                              20                              23                                 2650.0000    1219.2000     130.0000       0.0000 
 24                              23                              24                                 1230.0000     762.0000     130.0000       0.0000 
 25                              24                              25                                 1300.0000     762.0000     130.0000       0.0000 
 26                              26                              25                                  850.0000    1016.0000     130.0000       0.0000 
 27                              27                              26                                  300.0000     762.0000     130.0000       0.0000 
 28                              16                              27                                  750.0000    1016.0000     130.0000       0.0000 
 29                              23                              28                                 1500.0000     508.0000     130.0000       0.0000 
 30                              28                              29                                 2000.0000     508.0000     130.0000       0.0000 
 31                              29                              30                                 1600.0000     508.0000     130.0000       0.0000 
 32                              30                              31                                  150.0000     304.8000     130.0000       0.0000 
 33                              32                              31                                  860.0000     406.4000     130.0000       0.0000 
 34                              25                              32                                  950.0000     508.0000     130.0000       0.0000 

[PUMPS]

[VALVES]

[DEMANDS]
 2                                   890.000000 
 3                                   850.000000 
 4                                   130.000000 
 5                                   725.000000 
 6                                  1005.000000 
 7                                  1350.000000 
 8                                   550.000000 
 9                                   525.000000 
 10                                  525.000000 
 11                                  500.000000 
 12                                  560.000000 
 13                                  940.000000 
 14                                  615.000000 
 15                                  280.000000 
 16                                  310.000000 
 17                                  865.000000 
 18                                 1345.000000 
 19                                   60.000000 
 20                                 1275.000000 
 21                                  930.000000 
 22                                  485.000000 
 23                                 1045.000000 
 24                                  820.000000 
 25                                  170.000000 
 26                                  900.000000 
 27                                  370.000000 
 28                                  290.000000 
 29                                  360.000000 
 30                                  360.000000 
 31                                  105.000000 
 32                                  805.000000 

[EMITTERS]

[STATUS]

[PATTERNS]

[CURVES]

[CONTROLS]
 LINK 3 closed  AT TIME 1.0000 HOURS
 LINK 3 open  AT TIME 2.0000 HOURS
 LINK 4 closed  AT TIME 2.0000 HOURS
 LINK 4 open  AT TIME 3.0000 HOURS
 LINK 5 closed  AT TIME 3.0000 HOURS
 LINK 5 open  AT TIME 4.0000 HOURS
 LINK 6 closed  AT TIME 4.0000 HOURS
 LINK 6 open  AT TIME 5.0000 HOURS
 LINK 7 closed  AT TIME 5.0000 HOURS
 LINK 7 open  AT TIME 6.0000 HOURS
 LINK 8 closed  AT TIME 6.0000 HOURS
 LINK 8 open  AT TIME 7.0000 HOURS
 LINK 9 closed  AT TIME 7.0000 HOURS
 LINK 9 open  AT TIME 8.0000 HOURS
 LINK 13 closed  AT TIME 8.0000 HOURS
 LINK 13 open  AT TIME 9.0000 HOURS
 LINK 14 closed  AT TIME 9.0000 HOURS
 LINK 14 open  AT TIME 10.0000 HOURS
 LINK 15 closed  AT TIME 10.0000 HOURS
 LINK 15 open  AT TIME 11.0000 HOURS
 LINK 16 closed  AT TIME 11.0000 HOURS
 LINK 16 open  AT TIME 12.0000 HOURS
 LINK 17 closed  AT TIME 12.0000 HOURS
 LINK 17 open  AT TIME 13.0000 HOURS
 LINK 18 closed  AT TIME 13.0000 HOURS
 LINK 18 open  AT TIME 14.0000 HOURS
 LINK 19 closed  AT TIME 14.0000 HOURS
 LINK 19 open  AT TIME 15.0000 HOURS
 LINK 20 closed  AT TIME 15.0000 HOURS
 LINK 20 open  AT TIME 16.0000 HOURS
 LINK 23 closed  AT TIME 16.0000 HOURS
 LINK 23 open  AT TIME 17.0000 HOURS
 LINK 24 closed  AT TIME 17.0000 HOURS
 LINK 24 open  AT TIME 18.0000 HOURS
 LINK 25 closed  AT TIME 18.0000 HOURS
 LINK 25 open  AT TIME 19.0000 HOURS
 LINK 26 closed  AT TIME 19.0000 HOURS
 LINK 26 open  AT TIME 20.0000 HOURS
 LINK 27 closed  AT TIME 20.0000 HOURS
 LINK 27 open  AT TIME 21.0000 HOURS
 LINK 28 closed  AT TIME 21.0000 HOURS
 LINK 28 open  AT TIME 22.0000 HOURS
 LINK 29 closed  AT TIME 22.0000 HOURS
 LINK 29 open  AT TIME 23.0000 HOURS
 LINK 30 closed  AT TIME 23.0000 HOURS
 LINK 30 open  AT TIME 24.0000 HOURS
 LINK 31 closed  AT TIME 24.0000 HOURS
 LINK 31 open  AT TIME 25.0000 HOURS
 LINK 32 closed  AT TIME 25.0000 HOURS
 LINK 32 open  AT TIME 26.0000 HOURS
 LINK 33 closed  AT TIME 26.0000 HOURS
 LINK 33 open  AT TIME 27.0000 HOURS
 LINK 34 closed  AT TIME 27.0000 HOURS
 LINK 34 open  AT TIME 28.0000 HOURS

[QUALITY]

[SOURCES]

[MIXING]

[REACTIONS]
 ORDER  BULK            1.00
 ORDER  WALL            1
 ORDER  TANK            1.00
 GLOBAL BULK            0.000000
 GLOBAL WALL            0.000000

[ENERGY]
 GLOBAL EFFIC        75.0000
 DEMAND CHARGE       0.0000

[TIMES]
 DURATION            28:00:00
 HYDRAULIC TIMESTEP  1:00:00
 QUALITY TIMESTEP    0:05:00
 REPORT TIMESTEP     1:00:00
 REPORT START        0:00:00
 PATTERN TIMESTEP    1:00:00
 PATTERN START       0:00:00
 RULE TIMESTEP       0:06:00
 START CLOCKTIME     0:00:00
 STATISTIC           NONE

[OPTIONS]
 UNITS               CMH
 PRESSURE            METERS
 HEADLOSS            H-W
 UNBALANCED          CONTINUE 10
 QUALITY             NONE
 DEMAND MULTIPLIER   1.0000
 EMITTER EXPONENT    0.5000
 VISCOSITY           1.000000
 DIFFUSIVITY         1.000000
 SPECIFIC GRAVITY    1.000000
 TRIALS              40
 ACCURACY            0.00100000
 TOLERANCE           0.01000000
 CHECKFREQ           2
 MAXCHECK            10
 DAMPLIMIT           0.00000000

[REPORT]
 PAGESIZE            0
 STATUS              NO
 SUMMARY             NO
 ENERGY              NO
 NODES               NONE
 LINKS               NONE
 Elevation           NO
 Demand              PRECISION 2
 Head                PRECISION 2
 Pressure            PRECISION 2
 Quality             NO
 Length              NO
 Diameter            NO
 Flow                PRECISION 2
 Velocity            PRECISION 2
 Headloss            PRECISION 2
 Quality             NO
 State               NO
 Setting             NO
 Reaction            NO
[TAGS]

[RULES]


[COORDINATES]
;Node            	X-Coord         	Y-Coord
 2               	5021.20         	1582.17         
 3               	5025.20         	2585.42         
 4               	5874.22         	2588.30         
 5               	6873.11         	2588.30         
 6               	8103.51         	2585.42         
 7               	8103.51         	3234.67         
 8               	8106.66         	4179.28         
 9               	8106.66         	5133.78         
 10              	7318.64         	5133.78         
 11              	7319.94         	5831.65         
 12              	7319.94         	6671.19         
 13              	5636.76         	6676.24         
 14              	6530.63         	5133.78         
 15              	5676.02         	5133.78         
 16              	5021.20         	5133.78         
 17              	5021.20         	4412.36         
 18              	5021.20         	3868.52         
 19              	5021.20         	3191.49         
 20              	3587.87         	2588.30         
 21              	3587.87         	1300.84         
 22              	3587.87         	901.29          
 23              	1978.55         	2588.30         
 24              	1975.58         	4084.35         
 25              	1980.46         	5137.63         
 26              	3077.46         	5137.63         
 27              	3933.52         	5133.78         
 28              	846.04          	2588.20         
 29              	-552.41         	2588.20         
 30              	-552.38         	4369.06         
 31              	-549.36         	5137.63         
 32              	536.45          	5137.63         
 1               	5360.71         	1354.05         

[VERTICES]
;Link            	X-Coord         	Y-Coord

[LABELS]
;X-Coord           Y-Coord          Label & Anchor Node

[BACKDROP]
 DIMENSIONS     	-985.92         	612.54          	8551.27         	6964.99         
 UNITS          	None
 FILE           	
 OFFSET         	0.00            	0.00            


[END]