[TITLE]
Balerma Irrigation Network. Almería (Spain)

[INP]
;Epanet inp file
./examples/BIN.inp

[OPTIONS]
Algorithm NSGA2
Polish NO

[PIPES]
; ID    series
1	PVC
2	PVC
3	PVC
4	PVC
8	PVC
10	PVC
11	PVC
12	PVC
13	PVC
15	PVC
16	PVC
17	PVC
18	PVC
19	PVC
20	PVC
21	PVC
22	PVC
23	PVC
26	PVC
27	PVC
28	PVC
30	PVC
32	PVC
33	PVC
34	PVC
35	PVC
40	PVC
41	PVC
42	PVC
43	PVC
44	PVC
46	PVC
47	PVC
50	PVC
56	PVC
57	PVC
58	PVC
59	PVC
61	PVC
62	PVC
63	PVC
65	PVC
67	PVC
68	PVC
69	PVC
70	PVC
71	PVC
73	PVC
74	PVC
77	PVC
78	PVC
81	PVC
82	PVC
38	PVC
39	PVC
49	PVC
52	PVC
53	PVC
83	PVC
84	PVC
86	PVC
87	PVC
88	PVC
89	PVC
91	PVC
92	PVC
94	PVC
95	PVC
96	PVC
97	PVC
98	PVC
99	PVC
101	PVC
102	PVC
103	PVC
104	PVC
105	PVC
108	PVC
110	PVC
112	PVC
113	PVC
114	PVC
115	PVC
116	PVC
118	PVC
121	PVC
122	PVC
123	PVC
125	PVC
126	PVC
127	PVC
128	PVC
132	PVC
133	PVC
134	PVC
136	PVC
137	PVC
138	PVC
139	PVC
140	PVC
141	PVC
142	PVC
143	PVC
144	PVC
146	PVC
147	PVC
148	PVC
149	PVC
150	PVC
151	PVC
152	PVC
153	PVC
154	PVC
155	PVC
157	PVC
159	PVC
164	PVC
167	PVC
169	PVC
170	PVC
171	PVC
172	PVC
173	PVC
174	PVC
175	PVC
176	PVC
90	PVC
107	PVC
191	PVC
192	PVC
193	PVC
198	PVC
199	PVC
200	PVC
201	PVC
202	PVC
204	PVC
208	PVC
212	PVC
220	PVC
224	PVC
226	PVC
227	PVC
228	PVC
229	PVC
230	PVC
231	PVC
244	PVC
245	PVC
246	PVC
247	PVC
249	PVC
251	PVC
254	PVC
255	PVC
256	PVC
257	PVC
258	PVC
259	PVC
260	PVC
261	PVC
262	PVC
263	PVC
265	PVC
268	PVC
269	PVC
271	PVC
272	PVC
273	PVC
274	PVC
275	PVC
276	PVC
277	PVC
278	PVC
279	PVC
280	PVC
282	PVC
284	PVC
288	PVC
289	PVC
291	PVC
207	PVC
292	PVC
294	PVC
295	PVC
296	PVC
297	PVC
299	PVC
300	PVC
301	PVC
302	PVC
304	PVC
306	PVC
307	PVC
308	PVC
311	PVC
312	PVC
313	PVC
315	PVC
316	PVC
317	PVC
318	PVC
322	PVC
323	PVC
324	PVC
325	PVC
328	PVC
332	PVC
333	PVC
334	PVC
335	PVC
336	PVC
338	PVC
342	PVC
343	PVC
346	PVC
348	PVC
350	PVC
351	PVC
352	PVC
353	PVC
354	PVC
355	PVC
356	PVC
357	PVC
358	PVC
359	PVC
361	PVC
362	PVC
363	PVC
364	PVC
365	PVC
366	PVC
367	PVC
369	PVC
373	PVC
374	PVC
375	PVC
376	PVC
379	PVC
380	PVC
381	PVC
382	PVC
385	PVC
386	PVC
394	PVC
397	PVC
401	PVC
404	PVC
405	PVC
406	PVC
407	PVC
408	PVC
409	PVC
414	PVC
415	PVC
416	PVC
417	PVC
418	PVC
419	PVC
421	PVC
422	PVC
423	PVC
424	PVC
428	PVC
429	PVC
430	PVC
434	PVC
435	PVC
438	PVC
439	PVC
441	PVC
442	PVC
443	PVC
446	PVC
450	PVC
457	PVC
458	PVC
459	PVC
460	PVC
464	PVC
465	PVC
467	PVC
468	PVC
469	PVC
471	PVC
472	PVC
473	PVC
474	PVC
476	PVC
477	PVC
479	PVC
480	PVC
481	PVC
482	PVC
485	PVC
486	PVC
487	PVC
489	PVC
490	PVC
492	PVC
496	PVC
497	PVC
498	PVC
499	PVC
500	PVC
501	PVC
503	PVC
506	PVC
508	PVC
509	PVC
510	PVC
511	PVC
512	PVC
513	PVC
514	PVC
515	PVC
517	PVC
519	PVC
520	PVC
521	PVC
522	PVC
523	PVC
524	PVC
525	PVC
526	PVC
530	PVC
532	PVC
535	PVC
536	PVC
537	PVC
538	PVC
539	PVC
540	PVC
542	PVC
543	PVC
544	PVC
545	PVC
546	PVC
547	PVC
548	PVC
549	PVC
550	PVC
552	PVC
554	PVC
555	PVC
557	PVC
558	PVC
563	PVC
564	PVC
565	PVC
567	PVC
568	PVC
571	PVC
575	PVC
576	PVC
578	PVC
579	PVC
580	PVC
581	PVC
588	PVC
589	PVC
590	PVC
605	PVC
606	PVC
607	PVC
608	PVC
609	PVC
610	PVC
611	PVC
612	PVC
613	PVC
614	PVC
615	PVC
616	PVC
617	PVC
618	PVC
620	PVC
593	PVC
600	PVC
601	PVC
160	PVC
161	PVC
24	PVC
298	PVC
331	PVC
390	PVC
392	PVC
393	PVC
400	PVC
119	PVC
120	PVC
124	PVC
177	PVC
75	PVC
181	PVC
184	PVC
187	PVC
196	PVC
213	PVC
214	PVC
131	PVC
234	PVC
235	PVC
236	PVC
237	PVC
238	PVC
239	PVC
240	PVC
266	PVC
329	PVC
330	PVC
337	PVC
179	PVC
219	PVC
222	PVC
243	PVC
267	PVC
344	PVC
345	PVC
349	PVC
165	PVC
194	PVC
64	PVC
106	PVC
183	PVC
206	PVC
216	PVC
188	PVC
223	PVC
290	PVC
168	PVC
182	PVC
186	PVC
197	PVC
321	PVC
368	PVC
370	PVC
383	PVC
145	PVC
185	PVC
398	PVC
399	PVC
402	PVC
433	PVC
190	PVC
51	PVC
166	PVC
209	PVC
218	PVC
221	PVC
232	PVC
248	PVC
5	PVC

[PRESSURES]
;ID    required_pressure
179001    20.0
179    20.0
177    20.0
174    20.0
173    20.0
171001    20.0
171    20.0
172    20.0
170    20.0
165    20.0
166    20.0
168    20.0
169    20.0
163    20.0
164    20.0
162    20.0
161    20.0
106    20.0
124    20.0
125    20.0
125001    20.0
126    20.0
127    20.0
128    20.0
129    20.0
130    20.0
132    20.0
131001    20.0
131    20.0
133    20.0
134    20.0
135    20.0
136    20.0
137    20.0
138    20.0
139    20.0
141    20.0
143    20.0
144    20.0
145    20.0
142    20.0
140001    20.0
151    20.0
152    20.0
107    20.0
108    20.0
109    20.0
110    20.0
111    20.0
113    20.0
114    20.0
112    20.0
115    20.0
116    20.0
117    20.0
118    20.0
119    20.0
105    20.0
102    20.0
103    20.0
104    20.0
100    20.0
101    20.0
96    20.0
97    20.0
98    20.0
99    20.0
93    20.0
94    20.0
95    20.0
92    20.0
160    20.0
159001    20.0
159    20.0
156    20.0
157    20.0
158    20.0
155    20.0
154    20.0
153    20.0
55    20.0
59    20.0
60    20.0
61    20.0
62    20.0
147    20.0
150    20.0
148    20.0
149    20.0
63    20.0
64    20.0
65    20.0
66    20.0
67    20.0
68    20.0
69    20.0
70    20.0
71    20.0
72    20.0
56    20.0
57    20.0
58    20.0
53    20.0
54    20.0
52    20.0
46001    20.0
50    20.0
51    20.0
47    20.0
48    20.0
49    20.0
42    20.0
45    20.0
46    20.0
41    20.0
35    20.0
36    20.0
39    20.0
40    20.0
37    20.0
91    20.0
90    20.0
89    20.0
31    20.0
32    20.0
34    20.0
33    20.0
28001    20.0
28    20.0
29    20.0
30    20.0
27    20.0
26    20.0
23    20.0
22    20.0
87    20.0
86    20.0
83    20.0
77    20.0
81    20.0
78    20.0
79    20.0
80    20.0
82    20.0
84    20.0
85    20.0
121    20.0
122    20.0
123    20.0
120    20.0
75    20.0
76    20.0
73    20.0
74    20.0
227    20.0
215001    20.0
215    20.0
219    20.0
220    20.0
221    20.0
222    20.0
223    20.0
223001    20.0
224    20.0
225    20.0
226    20.0
214    20.0
216    20.0
217    20.0
218    20.0
201    20.0
203    20.0
204    20.0
205    20.0
211    20.0
212    20.0
206    20.0
207    20.0
208    20.0
209    20.0
210    20.0
213    20.0
200001    20.0
199    20.0
196    20.0
197    20.0
198    20.0
233    20.0
232    20.0
231    20.0
230    20.0
234    20.0
194    20.0
195    20.0
192    20.0
193    20.0
234001    20.0
235    20.0
236    20.0
237    20.0
238    20.0
240    20.0
239    20.0
190001    20.0
187    20.0
188    20.0
189    20.0
186    20.0
185    20.0
235001    20.0
241    20.0
242    20.0
243    20.0
244    20.0
245    20.0
183    20.0
184    20.0
182    20.0
249    20.0
248    20.0
247    20.0
246    20.0
181    20.0
266    20.0
180004    20.0
190    20.0
191    20.0
180003    20.0
180002    20.0
180001    20.0
180    20.0
287    20.0
286    20.0
285    20.0
284    20.0
200    20.0
274    20.0
275    20.0
276    20.0
265    20.0
268    20.0
269    20.0
271    20.0
270    20.0
318    20.0
317    20.0
316    20.0
315    20.0
313    20.0
314    20.0
312    20.0
310    20.0
311    20.0
309    20.0
297    20.0
298    20.0
299    20.0
296    20.0
294    20.0
293    20.0
291    20.0
295    20.0
288    20.0
289    20.0
290    20.0
282    20.0
277    20.0
278    20.0
279    20.0
280    20.0
281    20.0
272    20.0
273    20.0
264    20.0
257001    20.0
258001    20.0
259001    20.0
260001    20.0
261    20.0
262    20.0
263    20.0
255    20.0
258    20.0
259    20.0
260    20.0
256    20.0
257    20.0
254    20.0
250004    20.0
421    20.0
420    20.0
419    20.0
418    20.0
416    20.0
417    20.0
415    20.0
414    20.0
413    20.0
250001    20.0
21    20.0
319    20.0
320    20.0
20    20.0
19    20.0
18    20.0
302    20.0
303    20.0
305    20.0
306    20.0
307    20.0
321    20.0
11    20.0
322    20.0
323    20.0
301    20.0
300    20.0
324    20.0
368    20.0
367    20.0
369    20.0
325    20.0
365    20.0
362    20.0
360001    20.0
360    20.0
359    20.0
361    20.0
366    20.0
364    20.0
363    20.0
326    20.0
327    20.0
328    20.0
329    20.0
330    20.0
334    20.0
336    20.0
331    20.0
332    20.0
333    20.0
337    20.0
338    20.0
340    20.0
341    20.0
250    20.0
251    20.0
253    20.0
252    20.0
342    20.0
343    20.0
344    20.0
339    20.0
250003    20.0
250002    20.0
412    20.0
411    20.0
410    20.0
409    20.0
408    20.0
407001    20.0
407    20.0
345    20.0
346    20.0
347    20.0
348    20.0
349    20.0
350    20.0
350001    20.0
351    20.0
356    20.0
352    20.0
335    20.0
406    20.0
405    20.0
404    20.0
353    20.0
354    20.0
355    20.0
357    20.0
358    20.0
370    20.0
371    20.0
372    20.0
373    20.0
374    20.0
378    20.0
379    20.0
380    20.0
381    20.0
382    20.0
376    20.0
377    20.0
383    20.0
384    20.0
396001    20.0
397    20.0
398    20.0
400    20.0
401    20.0
402    20.0
403    20.0
10    20.0
9    20.0
8    20.0
2    20.0
1    20.0
3    20.0
385    20.0
17    20.0
16    20.0
15    20.0
13    20.0
12    20.0
14    20.0
6    20.0
5    20.0
601    20.0
387    20.0
388    20.0
389    20.0
390    20.0
391    20.0
392    20.0
393    20.0
394    20.0
395    20.0
396    20.0
4    20.0
7    20.0
228    20.0
229    20.0
256001    20.0
399    20.0
24    20.0
24001    20.0
25    20.0
45001    20.0
71001    20.0
127001    20.0
202001    20.0
301001    20.0
304    20.0
422    20.0

[CATALOG]
; series diameter roughness     price
PVC         113.0    0.0025      7.22
PVC         126.6    0.0025      9.10
PVC         144.6    0.0025     11.92
PVC         162.8    0.0025     14.84
PVC         180.8    0.0025     18.38
PVC         226.2    0.0025     28.26
PVC         285.0    0.0025     45.39
PVC         361.8    0.0025     76.32
PVC         452.2    0.0025    124.64
PVC         581.8    0.0025    215.85
PVC         723.8    0.0025    261.95
PVC         904.8    0.0025    409.30

[END]