[TITLE]
Hanoi example by Fujiwara and Khang, Water Resources Research, 1990

[JUNCTIONS]
;;ID                             	Elev        	Demand      	Pattern                        
 2                              	0.0000      
 3                              	0.0000      
 4                              	0.0000      
 5                              	0.0000      
 6                              	0.0000      
 7                              	0.0000      
 8                              	0.0000      
 9                              	0.0000      
 10                             	0.0000      
 11                             	0.0000      
 12                             	0.0000      
 13                             	0.0000      
 14                             	0.0000      
 15                             	0.0000      
 16                             	0.0000      
 17                             	0.0000      
 18                             	0.0000      
 19                             	0.0000      
 20                             	0.0000      
 21                             	0.0000      
 22                             	0.0000      
 23                             	0.0000      
 24                             	0.0000      
 25                             	0.0000      
 26                             	0.0000      
 27                             	0.0000      
 28                             	0.0000      
 29                             	0.0000      
 30                             	0.0000      
 31                             	0.0000      
 32                             	0.0000      

[RESERVOIRS]
;;ID                             	Head        	Pattern                        
 1                              	100.0000    	                               

[TANKS]
;;ID                             	Elevation   	InitLevel   	MinLevel    	MaxLevel    	Diameter    	MinVol      	VolCurve                       	Overflow    

[PIPES]
;;ID                             	Node1                          	Node2                          	Length      	Diameter    	Roughness   	MinorLoss   	Status
 1                              	1                              	2                              	100.0000    	966.4000    	130.0000    	0.0000      	      	;	
 2                              	2                              	3                              	1350.0000   	966.4000    	130.0000    	0.0000      	      
 3                              	3                              	4                              	900.0000    	966.4000    	130.0000    	0.0000      	      
 4                              	4                              	5                              	1150.0000   	966.4000    	130.0000    	0.0000      	      
 5                              	5                              	6                              	1450.0000   	966.4000    	130.0000    	0.0000      	      
 6                              	6                              	7                              	450.0000    	966.4000    	130.0000    	0.0000      	      
 7                              	7                              	8                              	850.0000    	966.4000    	130.0000    	0.0000      	      
 8                              	8                              	9                              	850.0000    	966.4000    	130.0000    	0.0000      	      
 9                              	9                              	10                             	800.0000    	724.8000    	130.0000    	0.0000      	      
 10                             	10                             	11                             	950.0000    	966.4000    	130.0000    	0.0000      	      
 11                             	11                             	12                             	1200.0000   	724.8000    	130.0000    	0.0000      	      
 12                             	12                             	13                             	3500.0000   	724.8000    	130.0000    	0.0000      	      
 13                             	10                             	14                             	800.0000    	579.9000    	130.0000    	0.0000      	      
 14                             	14                             	15                             	500.0000    	579.9000    	130.0000    	0.0000      	      
 15                             	15                             	16                             	550.0000    	579.9000    	130.0000    	0.0000      	      
 16                             	17                             	16                             	2730.0000   	966.4000    	130.0000    	0.0000      	      
 17                             	18                             	17                             	1750.0000   	966.4000    	130.0000    	0.0000      	      
 18                             	19                             	18                             	800.0000    	966.4000    	130.0000    	0.0000      	      
 19                             	3                              	19                             	400.0000    	966.4000    	130.0000    	0.0000      	      
 20                             	3                              	20                             	2200.0000   	966.4000    	130.0000    	0.0000      	      
 21                             	20                             	21                             	1500.0000   	483.2000    	130.0000    	0.0000      	      
 22                             	21                             	22                             	500.0000    	483.2000    	130.0000    	0.0000      	      
 23                             	20                             	23                             	2650.0000   	966.4000    	130.0000    	0.0000      	      
 24                             	23                             	24                             	1230.0000   	579.9000    	130.0000    	0.0000      	      
 25                             	24                             	25                             	1300.0000   	483.2000    	130.0000    	0.0000      	      
 26                             	26                             	25                             	850.0000    	483.2000    	130.0000    	0.0000      	      
 27                             	27                             	26                             	300.0000    	579.9000    	130.0000    	0.0000      	      
 28                             	16                             	27                             	750.0000    	724.8000    	130.0000    	0.0000      	      
 29                             	23                             	28                             	1500.0000   	579.9000    	130.0000    	0.0000      	      
 30                             	28                             	29                             	2000.0000   	386.6000    	130.0000    	0.0000      	      
 31                             	29                             	30                             	1600.0000   	289.9000    	130.0000    	0.0000      	      
 32                             	30                             	31                             	150.0000    	386.6000    	130.0000    	0.0000      	      
 33                             	32                             	31                             	860.0000    	483.2000    	130.0000    	0.0000      	      
 34                             	25                             	32                             	950.0000    	579.9000    	130.0000    	0.0000      	      	; 

[PUMPS]
;;ID                             	Node1                          	Node2                          	Parameters  

[VALVES]
;;ID                             	Node1                          	Node2                          	Diameter    	Type  	Setting     	MinorLoss   

[DEMANDS]
;;Junction                       	Demand        	Pattern                        	Category                       
 2                              	890.000000    	                               
 3                              	850.000000    	                               
 4                              	130.000000    	                               
 5                              	725.000000    	                               
 6                              	1005.000000   	                               
 7                              	1350.000000   	                               
 8                              	550.000000    	                               
 9                              	525.000000    	                               
 10                             	525.000000    	                               
 11                             	500.000000    	                               
 12                             	560.000000    	                               
 13                             	940.000000    	                               
 14                             	615.000000    	                               
 15                             	280.000000    	                               
 16                             	310.000000    	                               
 17                             	865.000000    	                               
 18                             	1345.000000   	                               
 19                             	60.000000     	                               
 20                             	1275.000000   	                               
 21                             	930.000000    	                               
 22                             	485.000000    	                               
 23                             	1045.000000   	                               
 24                             	820.000000    	                               
 25                             	170.000000    	                               
 26                             	900.000000    	                               
 27                             	370.000000    	                               
 28                             	290.000000    	                               
 29                             	360.000000    	                               
 30                             	360.000000    	                               
 31                             	105.000000    	                               
 32                             	805.000000    	                               

[EMITTERS]
;;Junction                       	Coefficient   

[LEAKAGE]
;;Pipe                           	Leak Area     	Leak Expansion

[STATUS]
;;ID                             	Status/Setting

[PATTERNS]
;;ID                             	Multipliers 

[CURVES]
;;ID                             	X-Value     	Y-Value     

[CONTROLS]

[RULES]

[QUALITY]
;;ID                             	InitQual      

[SOURCES]
;;ID                             	Type     	Quality       	Pattern                        

[MIXING]
;;ID                             	Model   

[REACTIONS]
 ORDER  BULK            1.00
 ORDER  WALL            1
 ORDER  TANK            1.00
 GLOBAL BULK            0.000000
 GLOBAL WALL            0.000000

[REACTIONS]
;Type     	Pipe/Tank                      	Coefficient 

[ENERGY]
 GLOBAL EFFIC        75.0000
 DEMAND CHARGE       0.0000

[TIMES]
 DURATION            0:00:00
 HYDRAULIC TIMESTEP  1:00:00
 QUALITY TIMESTEP    0:05:00
 REPORT TIMESTEP     1:00:00
 REPORT START        0:00:00
 PATTERN TIMESTEP    1:00:00
 PATTERN START       0:00:00
 RULE TIMESTEP       0:06:00
 START CLOCKTIME     0:00:00
 STATISTIC           NONE

[OPTIONS]
 UNITS               CMH
 PRESSURE            METERS
 HEADLOSS            H-W
 UNBALANCED          CONTINUE 10
 QUALITY             NONE
 DEMAND MULTIPLIER   1.0000
 EMITTER EXPONENT    0.5000
 BACKFLOW ALLOWED    YES
 VISCOSITY           1.000000
 DIFFUSIVITY         1.000000
 SPECIFIC GRAVITY    1.000000
 TRIALS              40
 ACCURACY            0.00100000
 TOLERANCE           0.01000000
 CHECKFREQ           2
 MAXCHECK            10
 DAMPLIMIT           0.00000000

[REPORT]
 PAGESIZE            0
 STATUS              NO
 SUMMARY             NO
 ENERGY              NO
 MESSAGES            YES
 NODES               NONE
 LINKS               NONE
 Elevation           NO
 Demand              PRECISION 2
 Head                PRECISION 2
 Pressure            PRECISION 2
 Quality             NO
 Length              NO
 Diameter            NO
 Flow                PRECISION 2
 Velocity            PRECISION 2
 Headloss            PRECISION 2
 Quality             NO
 State               NO
 Setting             NO
 Reaction            NO

[TAGS]
;;Object  	ID                             	Tag

[COORDINATES]
;;ID                             	X-Coord       	Y-Coord       
 2                              	5021.200000   	1582.170000   
 3                              	5025.200000   	2585.420000   
 4                              	5874.220000   	2588.300000   
 5                              	6873.110000   	2588.300000   
 6                              	8103.510000   	2585.420000   
 7                              	8103.510000   	3234.670000   
 8                              	8106.660000   	4179.280000   
 9                              	8106.660000   	5133.780000   
 10                             	7318.640000   	5133.780000   
 11                             	7319.940000   	5831.650000   
 12                             	7319.940000   	6671.190000   
 13                             	5636.760000   	6676.240000   
 14                             	6530.630000   	5133.780000   
 15                             	5676.020000   	5133.780000   
 16                             	5021.200000   	5133.780000   
 17                             	5021.200000   	4412.360000   
 18                             	5021.200000   	3868.520000   
 19                             	5021.200000   	3191.490000   
 20                             	3587.870000   	2588.300000   
 21                             	3587.870000   	1300.840000   
 22                             	3587.870000   	901.290000    
 23                             	1978.550000   	2588.300000   
 24                             	1975.580000   	4084.350000   
 25                             	1980.460000   	5137.630000   
 26                             	3077.460000   	5137.630000   
 27                             	3933.520000   	5133.780000   
 28                             	846.040000    	2588.200000   
 29                             	-552.410000   	2588.200000   
 30                             	-552.380000   	4369.060000   
 31                             	-549.360000   	5137.630000   
 32                             	536.450000    	5137.630000   
 1                              	5360.710000   	1354.050000   

[VERTICES]
;;ID                             	X-Coord       	Y-Coord       

[LABELS]
;X-Coord           Y-Coord          Label & Anchor Node

[BACKDROP]
 DIMENSIONS     	-985.92         	612.54          	8551.27         	6964.99         
 UNITS          	None
 FILE           	
 OFFSET         	0.00            	0.00            

[END]
