[TITLE]
 New York example by Murphy, Simpson and Dandy Res.Rep. No. R109, Dec. 1993 

[JUNCTIONS]
 2                                     0.0000
 3                                     0.0000
 4                                     0.0000
 5                                     0.0000
 6                                     0.0000
 7                                     0.0000
 8                                     0.0000
 9                                     0.0000
 10                                    0.0000
 11                                    0.0000
 12                                    0.0000
 13                                    0.0000
 14                                    0.0000
 15                                    0.0000
 16                                    0.0000
 17                                    0.0000
 18                                    0.0000
 19                                    0.0000
 20                                    0.0000

[RESERVOIRS]
 1                                   300.0000 

[TANKS]

[PIPES]
 1                               1                               2                                 11600.0000     180.0000     100.0000       0.0000 
 2                               2                               3                                 19800.0000     180.0000     100.0000       0.0000 
 3                               3                               4                                  7300.0000     180.0000     100.0000       0.0000 
 4                               4                               5                                  8300.0000     180.0000     100.0000       0.0000 
 5                               5                               6                                  8600.0000     180.0000     100.0000       0.0000 
 6                               6                               7                                 19100.0000     180.0000     100.0000       0.0000 
 7                               7                               8                                  9600.0000     132.0000     100.0000       0.0000 
 8                               8                               9                                 12500.0000     132.0000     100.0000       0.0000 
 9                               9                               10                                 9600.0000     180.0000     100.0000       0.0000 
 10                              11                              9                                 11200.0000     204.0000     100.0000       0.0000 
 11                              12                              11                                14500.0000     204.0000     100.0000       0.0000 
 12                              13                              12                                12200.0000     204.0000     100.0000       0.0000 
 13                              14                              13                                24100.0000     204.0000     100.0000       0.0000 
 14                              15                              14                                21100.0000     204.0000     100.0000       0.0000 
 15                              1                               15                                15500.0000     204.0000     100.0000       0.0000 
 16                              10                              17                                26400.0000      72.0000     100.0000       0.0000 
 17                              12                              18                                31200.0000      72.0000     100.0000       0.0000 
 18                              18                              19                                24000.0000      60.0000     100.0000       0.0000 
 19                              11                              20                                14400.0000      60.0000     100.0000       0.0000 
 20                              20                              16                                38400.0000      60.0000     100.0000       0.0000 
 21                              9                               16                                26400.0000      72.0000     100.0000       0.0000 
 101                             1                               2                                 11600.0000      60.0000     100.0000       0.0000 
 102                             2                               3                                 19800.0000     108.0000     100.0000       0.0000 
 103                             3                               4                                  7300.0000      36.0000     100.0000       0.0000 
 104                             4                               5                                  8300.0000       0.0010     100.0000       0.0000 
 105                             5                               6                                  8600.0000       0.0010     100.0000       0.0000 
 106                             6                               7                                 19100.0000      36.0000     100.0000       0.0000 
 107                             7                               8                                  9600.0000       0.0010     100.0000       0.0000 
 108                             8                               9                                 12500.0000      36.0000     100.0000       0.0000 
 109                             9                               10                                 9600.0000       0.0010     100.0000       0.0000 
 110                             11                              9                                 11200.0000       0.0010     100.0000       0.0000 
 111                             12                              11                                14500.0000       0.0010     100.0000       0.0000 
 112                             13                              12                                12200.0000       0.0010     100.0000       0.0000 
 113                             14                              13                                24100.0000      72.0000     100.0000       0.0000 
 114                             15                              14                                21100.0000     156.0000     100.0000       0.0000 
 115                             1                               15                                15500.0000      60.0000     100.0000       0.0000 
 116                             10                              17                                26400.0000      48.0000     100.0000       0.0000 
 117                             12                              18                                31200.0000      96.0000     100.0000       0.0000 
 118                             18                              19                                24000.0000      72.0000     100.0000       0.0000 
 119                             11                              20                                14400.0000      96.0000     100.0000       0.0000 
 120                             20                              16                                38400.0000      60.0000     100.0000       0.0000 
 121                             9                               16                                26400.0000      36.0000     100.0000       0.0000 

[PUMPS]

[VALVES]

[DEMANDS]
 2                                    92.400000 
 3                                    92.400000 
 4                                    88.200000 
 5                                    88.200000 
 6                                    88.200000 
 7                                    88.200000 
 8                                    88.200000 
 9                                   170.000000 
 10                                    1.000000 
 11                                  170.000000 
 12                                  117.100000 
 13                                  117.100000 
 14                                   92.400000 
 15                                   92.400000 
 16                                  170.000000 
 17                                   57.500000 
 18                                  117.100000 
 19                                  117.100000 
 20                                  170.000000 

[EMITTERS]

[STATUS]

[PATTERNS]

[CURVES]

[CONTROLS]

[QUALITY]

[SOURCES]

[MIXING]

[REACTIONS]
 ORDER  BULK            1.00
 ORDER  WALL            1
 ORDER  TANK            1.00
 GLOBAL BULK            0.000000
 GLOBAL WALL            0.000000

[ENERGY]
 GLOBAL EFFIC        75.0000
 DEMAND CHARGE       0.0000

[TIMES]
 DURATION            0:00:00
 HYDRAULIC TIMESTEP  1:00:00
 QUALITY TIMESTEP    0:05:00
 REPORT TIMESTEP     1:00:00
 REPORT START        0:00:00
 PATTERN TIMESTEP    1:00:00
 PATTERN START       0:00:00
 RULE TIMESTEP       0:06:00
 START CLOCKTIME     0:00:00
 STATISTIC           NONE

[OPTIONS]
 UNITS               CFS
 PRESSURE            PSI
 HEADLOSS            H-W
 UNBALANCED          CONTINUE 10
 QUALITY             NONE
 DEMAND MULTIPLIER   1.0000
 EMITTER EXPONENT    0.5000
 VISCOSITY           1.000000
 DIFFUSIVITY         1.000000
 SPECIFIC GRAVITY    1.000000
 TRIALS              40
 ACCURACY            0.00100000
 TOLERANCE           0.01000000
 CHECKFREQ           2
 MAXCHECK            10
 DAMPLIMIT           0.00000000

[REPORT]
 PAGESIZE            0
 STATUS              NO
 SUMMARY             NO
 ENERGY              NO
 NODES               NONE
 LINKS               NONE
 Elevation           NO
 Demand              PRECISION 2
 Head                PRECISION 2
 Pressure            PRECISION 2
 Quality             NO
 Length              NO
 Diameter            NO
 Flow                PRECISION 2
 Velocity            PRECISION 2
 Headloss            PRECISION 2
 Quality             NO
 State               NO
 Setting             NO
 Reaction            NO
[TAGS]

[RULES]

[COORDINATES]
;Node            	X-Coord         	Y-Coord
 2               	528.00          	2468.00         
 3               	496.00          	2240.00         
 4               	431.00          	2000.00         
 5               	427.00          	1793.00         
 6               	443.00          	1582.00         
 7               	455.00          	1395.00         
 8               	533.00          	1224.00         
 9               	642.00          	1074.00         
 10              	553.00          	915.00          
 11              	732.00          	1334.00         
 12              	748.00          	1570.00         
 13              	780.00          	1781.00         
 14              	695.00          	2122.00         
 15              	687.00          	2403.00         
 16              	963.00          	716.00          
 17              	317.00          	505.00          
 18              	1110.00         	1574.00         
 19              	1419.00         	1594.00         
 20              	1061.00         	1131.00         
 1               	610.00          	2716.00         

[VERTICES]
;Link            	X-Coord         	Y-Coord
 4               	306.29          	1915.99         
 5               	306.29          	1679.48         
 6               	341.77          	1498.16         
 7               	369.36          	1277.42         
 8               	479.73          	1111.86         
 9               	416.66          	1017.26         
 10              	775.37          	1155.22         
 11              	850.26          	1423.26         
 12              	862.09          	1718.90         
 13              	869.97          	1955.41         
 14              	810.84          	2258.93         
 16              	558.57          	627.02          
 19              	1007.93         	1293.18         
 20              	1118.31         	875.35          
 21              	720.18          	804.40          
 101             	475.79          	2609.75         
 102             	416.66          	2377.18         
 103             	369.36          	2128.85         
 115             	795.08          	2605.81         
 117             	1007.93         	1671.60         
 118             	1358.76         	1707.07         

[LABELS]
;X-Coord           Y-Coord          Label & Anchor Node

[BACKDROP]
 DIMENSIONS     	261.90          	394.45          	1474.10         	2826.55         
 UNITS          	None
 FILE           	
 OFFSET         	0.00            	0.00            


[END]