[TITLE]
Test SHGO Timeout

[INP]
./ppno/examples/HAN.inp

[OPTIONS]
Algorithm SHGO
MaxRetries 1

[PIPES]
1    PVC-SDR41
2    PVC-SDR41

[PRESSURES]
2    30.0

[CATALOG]
PVC-SDR41     289.9        130.0    45.73
PVC-SDR41     386.6        130.0    70.40
PVC-SDR41     483.2        130.0    98.39

[END]
