[INP]
ppno/examples/NYT.inp

[OPTIONS]
ALGORITHM DE DA
REPORT YES
REFINE YES
MAXRETRIES 2

[PIPES]
1 NYT
2 NYT

[PRESSURES]
2 0.0

[CATALOG]
NYT 12.0 120 1.5
NYT 24.0 120 2.5
NYT 36.0 120 3.5
